/*--------------------------------*- C++ -*----------------------------------*\
  =========                 |
  \\      /  F ield         | OpenFOAM: The Open Source CFD Toolbox
   \\    /   O peration     | Website:  https://openfoam.org
    \\  /    A nd           | Version:  7
     \\/     M anipulation  |
\*---------------------------------------------------------------------------*/
FoamFile
{
    version     2.0;
    format      ascii;
    class       dictionary;
    object      blockMeshDict;
}
// * * * * * * * * * * * * * * * * * * * * * * * * * * * * * * * * * * * * * //

vertices
(
    (0 0 0)
    (160 0 0)
    (160 20 0)
    (0 20 0)
    (0 0 40)
    (160 0 40)
    (160 20 40)
    (0 20 40)

);


blocks
(
    hex (0 1 2 3 4 5 6 7) (320 40 1) simpleGrading (1 1 1)
);

edges
(
);

boundary
(
    top
    {
        type patch;
        faces
        (
            (3 7 6 2)
        );
    }
    left
    {
        type cyclicAMI;
        neighbourPatch  right;
        transform       translational;
        separationVector    (160 0 0);
        faces
        (
            (0 4 7 3)
        );
    }
    right
    {
        type cyclicAMI;
        neighbourPatch  left;
        transform       translational;
        separationVector    (-160 0 0);
        faces
        (
            (1 2 6 5)
        );
    }

    front
    {
        type empty;
        faces
        (
            (0 3 2 1)
        );
    }
    back
    {
        type empty;
        faces
        (
            (4 5 6 7)
        );
    }
    bottom
    {
        type patch;
        faces
        (
            (0 1 5 4)
        );
    }

);

mergePatchPairs
(
);

// ************************************************************************* //
