/*--------------------------------*- C++ -*----------------------------------*\
  =========                 |
  \\      /  F ield         | OpenFOAM: The Open Source CFD Toolbox
   \\    /   O peration     | Website:  https://openfoam.org
    \\  /    A nd           | Version:  7
     \\/     M anipulation  |
\*---------------------------------------------------------------------------*/
FoamFile
{
    version     2.0;
    format      ascii;
    class       volScalarField;
    object      suspendedClay;
}
// * * * * * * * * * * * * * * * * * * * * * * * * * * * * * * * * * * * * * //

dimensions      [1 -3 0 0 0 0 0];

internalField   uniform 0;

boundaryField
{
    front
    {
        type    empty;
    }

    back
    {
        type    empty;
    }

    right
    {
  	    type	cyclicAMI;
    }

    left
    {
        type	cyclicAMI;
    }

    top
    {
    	type            uniformInletOutlet;
        phi             phi;
        uniformInletValue	
	{
          type             csvFile;
          nHeaderLine      1;              // number of header lines
          refColumn        0;              // time column index
          componentColumns (1);            // data column index
          separator        ",";            // optional (defaults to ",")
          mergeSeparators  no;             // merge multiple separators
          file             "Cw_dataTable.csv";
     	} 
        value           $internalField;
	}
    
    bottom
    {
        type            zeroGradient;
    }
}

// ************************************************************************* //
