/*--------------------------------*- C++ -*----------------------------------*\
  =========                 |
  \\      /  F ield         | OpenFOAM: The Open Source CFD Toolbox
   \\    /   O peration     | Website:  https://openfoam.org
    \\  /    A nd           | Version:  7
     \\/     M anipulation  |
\*---------------------------------------------------------------------------*/
FoamFile
{
    version     2.0;
    format      ascii;
    class       dictionary;
    location    "constant";
    object      transportProperties;
}
// * * * * * * * * * * * * * * * * * * * * * * * * * * * * * * * * * * * * * //
// [kg m s K mol * *]

// Diameters
ds        ds        [0 1 0 0 0 0 0]     3.84E-4;   
dp        dp        [0 1 0 0 0 0 0]     15.00E-6;  

// Densities
rho       rho       [1 -3 0 0 0 0 0]    997.0;
rho_clay  rho_clay  [1 -3 0 0 0 0 0]    1050.0;
rho_sand  rho_sand  [1 -3 0 0 0 0 0]    1550.0;

//Other physical stuff
g         g         [0 1 -2 0 0 0 0]    9.81;
mu        mu        [1 -1 -1 0 0 0 0]   0.0008891;

//Dispersion
mDif       0; //2.0E-9;
LongDisp   0; //0.01;
TransDisp  0; //0.001;

molDiff    molDiff    [0 2 -1 0 0 0 0]
    ($mDif 0.0 0.0 
     0.0 $mDif 0.0 
     0.0 0.0 $mDif);

DispTensor DispTensor [0 1 0 0 0 0 0]
    ($LongDisp $TransDisp $TransDisp 
     $TransDisp $LongDisp $TransDisp 
     $TransDisp $TransDisp $LongDisp);

//Filtration & clogging
alphaCFT  alphaCFT  [0 0 0 0 0 0 0]     0.35;

//Chemical parameters
Hamaker   Hamaker   [1 2 -2 0 0 0 0]    1.0E-20;
kBoltz    kBoltz    [1 2 -2 -1 0 0 0]   1.38E-23;
Temp      Temp      [0 0 0 1 0 0 0]     298.0;
kdet      kdet      [0 0 -1 0 0 0 0]    0.00;


// ************************************************************************* //
